*SPEF "1481-1998"
*DESIGN "pit_top"
*DATE "Tue May  7 06:34:19 2024"
*VENDOR "Synopsys, Inc."
*PROGRAM "icc2 /eda/synopsys/icc2/V-2023.12/linux64/nwtn/bin/icc2_exec"
*VERSION "V-2023.12 Nov 23, 2023"
*DESIGN_FLOW "ICC2 SPEF DR"
*DIVIDER /
*DELIMITER :
*BUS_DELIMITER [ ]
*T_UNIT 1 NS
*C_UNIT 1 FF
*R_UNIT 1 OHM
*L_UNIT 1 HENRY

// XY_UNIT 1 UM
// PARASITIC_TECH minTLU at -40.000 degree

*NAME_MAP
*1 clk
*2 rst
*3 comp_out
*4 digital_out[9]
*5 digital_out[8]
*6 digital_out[7]
*7 digital_out[6]
*8 digital_out[5]
*9 digital_out[4]
*10 digital_out[3]
*11 digital_out[2]
*12 digital_out[1]
*13 digital_out[0]
*14 EOC
*15 VDD
*16 VSS
*17 state_reg_0_
*18 state_reg_2_
*19 state_reg_1_
*20 EOC_reg
*21 i_reg_1_
*22 i_reg_2_
*23 i_reg_4_
*24 i_reg_5_
*25 i_reg_6_
*26 i_reg_7_
*27 i_reg_8_
*28 i_reg_9_
*29 i_reg_10_
*30 i_reg_11_
*31 i_reg_12_
*32 i_reg_13_
*33 i_reg_14_
*34 i_reg_15_
*35 i_reg_16_
*36 i_reg_17_
*37 i_reg_18_
*38 i_reg_19_
*39 i_reg_20_
*40 i_reg_21_
*41 i_reg_22_
*42 i_reg_23_
*43 i_reg_24_
*44 i_reg_25_
*45 i_reg_26_
*46 i_reg_27_
*47 i_reg_28_
*48 i_reg_29_
*49 i_reg_30_
*50 i_reg_31_
*51 sar_reg_reg_9_
*52 digital_out_reg_9_
*53 sar_reg_reg_8_
*54 digital_out_reg_8_
*55 sar_reg_reg_7_
*56 digital_out_reg_7_
*57 sar_reg_reg_6_
*58 digital_out_reg_6_
*59 sar_reg_reg_5_
*60 digital_out_reg_5_
*61 sar_reg_reg_4_
*62 digital_out_reg_4_
*63 sar_reg_reg_3_
*64 digital_out_reg_3_
*65 sar_reg_reg_2_
*66 digital_out_reg_2_
*67 sar_reg_reg_1_
*68 digital_out_reg_1_
*69 sar_reg_reg_0_
*70 digital_out_reg_0_
*71 U7
*72 ctmTdsLR_1_11
*73 ctmTdsLR_1_12
*74 U12
*75 sub_47/ctmTdsLR_1_17
*76 U17
*77 ZCTSBUF_1549_18
*78 ZCTSBUF_762_19
*79 U22
*80 ctmTdsLR_1_158
*81 ctmTdsLR_2_159
*82 U28
*83 ctmTdsLR_1_13
*84 U33
*85 ctmTdsLR_3_160
*86 U38
*87 ctmTdsLR_1_161
*88 U43
*89 ctmTdsLR_2_162
*90 U49
*91 U53
*92 U133
*93 U140
*94 U141
*95 i_reg_3_
*96 i_reg_0_
*97 U153
*98 U154
*99 U155
*100 U156
*101 U157
*102 HFSBUF_2170_0
*103 HFSINV_2198_2
*104 sub_47/ctmTdsLR_2_4
*105 ctmTdsLR_1_163
*106 ctmTdsLR_2_164
*107 U163
*108 U164
*109 U165
*110 U166
*111 ctmTdsLR_1_165
*112 ctmTdsLR_2_166
*113 U171
*114 ctmTdsLR_1_14
*115 ctmTdsLR_3_167
*116 ctmTdsLR_4_168
*117 U176
*118 U177
*119 U178
*120 sub_47/ctmTdsLR_1_5
*121 U180
*122 U181
*123 U182
*124 U183
*125 U184
*126 U185
*127 U186
*128 U187
*129 U188
*130 U189
*131 U190
*132 U191
*133 U192
*134 U193
*135 U194
*136 U195
*137 U196
*138 U197
*139 U198
*140 U199
*141 U200
*142 U201
*143 U202
*144 U203
*145 U204
*146 U205
*147 U206
*148 U207
*149 U208
*150 U209
*151 U210
*152 U211
*153 U212
*154 U213
*155 U214
*156 U215
*157 U216
*158 U217
*159 sub_47/gre_a_INV_23_inst_169
*160 xofiller!SHFILL3!x150000y150000
*161 xofiller!SHFILL3!x159600y150000
*162 U220
*163 U221
*164 U222
*165 U223
*166 xofiller!SHFILL3!x217200y150000
*167 xofiller!SHFILL3!x246000y150000
*168 xofiller!SHFILL3!x255600y150000
*169 U225
*170 U226
*171 U227
*172 U228
*173 U229
*174 U230
*175 U231
*176 U232
*177 U233
*178 U234
*179 U235
*180 U236
*181 U237
*182 U238
*183 U239
*184 U240
*185 xofiller!SHFILL3!x265200y150000
*186 xofiller!SHFILL1!x274800y150000
*187 xofiller!SHFILL3!x390000y150000
*188 U242
*189 U243
*190 U244
*191 U245
*192 U246
*193 U247
*194 xofiller!SHFILL3!x399600y150000
*195 xofiller!SHFILL1!x409200y150000
*196 xofiller!SHFILL2!x450800y150000
*197 sub_47/U2
*198 sub_47/U3
*199 sub_47/U4
*200 sub_47/U5
*201 sub_47/U6
*202 sub_47/U7
*203 sub_47/U8
*204 sub_47/U9
*205 sub_47/U10
*206 sub_47/U11
*207 sub_47/U12
*208 ctmTdsLR_1_9
*209 ctmTdsLR_1_10
*210 ctmTdsLR_1_15
*211 sub_47/U16
*212 sub_47/U17
*213 sub_47/U18
*214 sub_47/U19
*215 sub_47/U20
*216 sub_47/U22
*217 sub_47/U23
*218 sub_47/U24
*219 sub_47/U25
*220 sub_47/U26
*221 sub_47/U27
*222 sub_47/U28
*223 sub_47/U29
*224 sub_47/U30
*225 sub_47/U31
*226 sub_47/U32
*227 sub_47/U33
*228 sub_47/U34
*229 sub_47/U35
*230 sub_47/U36
*231 sub_47/U37
*232 sub_47/U38
*233 sub_47/U39
*234 sub_47/U40
*235 sub_47/U41
*236 sub_47/U42
*237 sub_47/U43
*238 sub_47/U44
*239 sub_47/U45
*240 sub_47/U46
*241 sub_47/U47
*242 sub_47/U48
*243 sub_47/U49
*244 sub_47/U50
*245 sub_47/U51
*246 sub_47/U52
*247 sub_47/U53
*248 sub_47/U54
*249 sub_47/U55
*250 sub_47/U56
*251 sub_47/U57
*252 sub_47/U58
*253 sub_47/U59
*254 sub_47/U60
*255 sub_47/U61
*256 sub_47/U62
*257 sub_47/U63
*258 sub_47/U64
*259 sub_47/U65
*260 sub_47/U66
*261 sub_47/U67
*262 sub_47/U68
*263 sub_47/U69
*264 sub_47/U70
*265 sub_47/U71
*266 sub_47/U72
*267 sub_47/U73
*268 sub_47/U74
*269 sub_47/U75
*270 sub_47/U76
*271 sub_47/U77
*272 sub_47/U78
*273 sub_47/U79
*274 sub_47/U80
*275 sub_47/U81
*276 sub_47/U82
*277 sub_47/U83
*278 sub_47/U84
*279 sub_47/U85
*280 sub_47/U86
*281 sub_47/U87
*282 sub_47/U88
*283 sub_47/ctmTdsLR_1_6
*284 sub_47/ctmTdsLR_2_7
*285 sub_47/U91
*286 sub_47/U92
*287 sub_47/U93
*288 sub_47/U94
*289 sub_47/U95
*290 sub_47/U96
*291 sub_47/U97
*292 sub_47/U98
*293 sub_47/U99
*294 sub_47/U100
*295 sub_47/U101
*296 sub_47/U102
*297 sub_47/U103
*298 xofiller!SHFILL1!x476400y150000
*299 xofiller!SHFILL3!x498800y150000
*300 xofiller!SHFILL2!x508400y150000
*301 xofiller!SHFILL3!x534000y150000
*302 xofiller!SHFILL3!x543600y150000
*303 xofiller!SHFILL2!x578800y150000
*304 xofiller!SHFILL3!x604400y150000
*305 sub_47/ctmTdsLR_3_8
*306 sub_47/U110
*307 sub_47/U111
*308 ctmTdsLR_1_16
*309 sub_47/U113
*310 sub_47/U114
*311 sub_47/U115
*312 xofiller!SHFILL3!x614000y150000
*313 xofiller!SHFILL3!x623600y150000
*314 sub_47/U117
*315 sub_47/U118
*316 sub_47/U119
*317 sub_47/U120
*318 sub_47/U121
*319 sub_47/U122
*320 sub_47/U123
*321 sub_47/U124
*322 sub_47/U125
*323 sub_47/U126
*324 sub_47/U127
*325 sub_47/U128
*326 sub_47/U129
*327 xofiller!SHFILL3!x633200y150000
*328 xofiller!SHFILL3!x642800y150000
*329 xofiller!SHFILL3!x652400y150000
*330 xofiller!SHFILL3!x662000y150000
*331 xofiller!SHFILL3!x671600y150000
*332 xofiller!SHFILL1!x681200y150000
*333 xofiller!SHFILL2!x703600y150000
*334 xofiller!SHFILL2!x866800y150000
*335 xofiller!SHFILL1!x150000y178800
*336 xofiller!SHFILL3!x172400y178800
*337 xofiller!SHFILL1!x182000y178800
*338 xofiller!SHFILL2!x233200y178800
*339 xofiller!SHFILL3!x290800y178800
*340 xofiller!SHFILL3!x300400y178800
*341 xofiller!SHFILL3!x310000y178800
*342 xofiller!SHFILL3!x319600y178800
*343 xofiller!SHFILL3!x329200y178800
*344 xofiller!SHFILL3!x338800y178800
*345 xofiller!SHFILL3!x348400y178800
*346 xofiller!SHFILL3!x358000y178800
*347 xofiller!SHFILL3!x367600y178800
*348 xofiller!SHFILL3!x377200y178800
*349 xofiller!SHFILL1!x386800y178800
*350 xofiller!SHFILL1!x422000y178800
*351 xofiller!SHFILL3!x444400y178800
*352 xofiller!SHFILL2!x498800y178800
*353 xofiller!SHFILL2!x524400y178800
*354 xofiller!SHFILL1!x550000y178800
*355 xofiller!SHFILL2!x572400y178800
*356 xofiller!SHFILL3!x598000y178800
*357 xofiller!SHFILL1!x639600y178800
*358 xofiller!SHFILL2!x684400y178800
*359 xofiller!SHFILL3!x710000y178800
*360 xofiller!SHFILL3!x738800y178800
*361 xofiller!SHFILL3!x748400y178800
*362 xofiller!SHFILL3!x758000y178800
*363 xofiller!SHFILL3!x767600y178800
*364 xofiller!SHFILL3!x777200y178800
*365 xofiller!SHFILL3!x786800y178800
*366 xofiller!SHFILL3!x796400y178800
*367 xofiller!SHFILL3!x806000y178800
*368 xofiller!SHFILL3!x815600y178800
*369 xofiller!SHFILL3!x825200y178800
*370 xofiller!SHFILL3!x834800y178800
*371 xofiller!SHFILL3!x844400y178800
*372 xofiller!SHFILL3!x854000y178800
*373 xofiller!SHFILL3!x863600y178800
*374 xofiller!SHFILL3!x150000y207600
*375 xofiller!SHFILL3!x159600y207600
*376 xofiller!SHFILL3!x188400y207600
*377 xofiller!SHFILL2!x198000y207600
*378 xofiller!SHFILL2!x223600y207600
*379 xofiller!SHFILL2!x271600y207600
*380 xofiller!SHFILL3!x418800y207600
*381 xofiller!SHFILL2!x428400y207600
*382 xofiller!SHFILL1!x476400y207600
*383 xofiller!SHFILL1!x521200y207600
*384 xofiller!SHFILL2!x566000y207600
*385 xofiller!SHFILL1!x591600y207600
*386 xofiller!SHFILL1!x636400y207600
*387 xofiller!SHFILL1!x681200y207600
*388 xofiller!SHFILL1!x703600y207600
*389 xofiller!SHFILL2!x726000y207600
*390 xofiller!SHFILL3!x863600y207600
*391 xofiller!SHFILL3!x226800y236400
*392 xofiller!SHFILL3!x236400y236400
*393 xofiller!SHFILL3!x246000y236400
*394 xofiller!SHFILL3!x255600y236400
*395 xofiller!SHFILL3!x265200y236400
*396 xofiller!SHFILL2!x274800y236400
*397 xofiller!SHFILL3!x393200y236400
*398 xofiller!SHFILL3!x431600y236400
*399 xofiller!SHFILL3!x441200y236400
*400 xofiller!SHFILL3!x450800y236400
*401 xofiller!SHFILL3!x460400y236400
*402 xofiller!SHFILL3!x470000y236400
*403 xofiller!SHFILL3!x479600y236400
*404 xofiller!SHFILL3!x489200y236400
*405 xofiller!SHFILL3!x498800y236400
*406 xofiller!SHFILL3!x508400y236400
*407 xofiller!SHFILL3!x518000y236400
*408 xofiller!SHFILL3!x527600y236400
*409 xofiller!SHFILL3!x537200y236400
*410 xofiller!SHFILL3!x546800y236400
*411 xofiller!SHFILL3!x556400y236400
*412 xofiller!SHFILL3!x566000y236400
*413 xofiller!SHFILL3!x575600y236400
*414 xofiller!SHFILL3!x585200y236400
*415 xofiller!SHFILL3!x594800y236400
*416 xofiller!SHFILL3!x604400y236400
*417 xofiller!SHFILL2!x662000y236400
*418 xofiller!SHFILL3!x687600y236400
*419 xofiller!SHFILL3!x697200y236400
*420 xofiller!SHFILL2!x706800y236400
*421 xofiller!SHFILL3!x863600y236400
*422 xofiller!SHFILL2!x150000y265200
*423 xofiller!SHFILL2!x204400y265200
*424 xofiller!SHFILL1!x230000y265200
*425 xofiller!SHFILL3!x617200y265200
*426 xofiller!SHFILL3!x626800y265200
*427 xofiller!SHFILL3!x636400y265200
*428 xofiller!SHFILL3!x646000y265200
*429 xofiller!SHFILL3!x655600y265200
*430 xofiller!SHFILL3!x665200y265200
*431 xofiller!SHFILL3!x674800y265200
*432 xofiller!SHFILL1!x684400y265200
*433 xofiller!SHFILL3!x729200y265200
*434 xofiller!SHFILL2!x738800y265200
*435 xofiller!SHFILL3!x764400y265200
*436 xofiller!SHFILL3!x774000y265200
*437 xofiller!SHFILL3!x783600y265200
*438 xofiller!SHFILL3!x793200y265200
*439 xofiller!SHFILL3!x802800y265200
*440 xofiller!SHFILL3!x812400y265200
*441 xofiller!SHFILL3!x822000y265200
*442 xofiller!SHFILL3!x860400y265200
*443 xofiller!SHFILL1!x870000y265200
*444 xofiller!SHFILL1!x150000y294000
*445 xofiller!SHFILL3!x172400y294000
*446 xofiller!SHFILL3!x294000y294000
*447 xofiller!SHFILL3!x303600y294000
*448 xofiller!SHFILL3!x313200y294000
*449 xofiller!SHFILL3!x322800y294000
*450 xofiller!SHFILL3!x332400y294000
*451 xofiller!SHFILL3!x342000y294000
*452 xofiller!SHFILL3!x351600y294000
*453 xofiller!SHFILL3!x361200y294000
*454 xofiller!SHFILL3!x370800y294000
*455 xofiller!SHFILL3!x380400y294000
*456 xofiller!SHFILL2!x390000y294000
*457 xofiller!SHFILL3!x422000y294000
*458 xofiller!SHFILL1!x431600y294000
*459 xofiller!SHFILL3!x466800y294000
*460 xofiller!SHFILL3!x476400y294000
*461 xofiller!SHFILL1!x486000y294000
*462 xofiller!SHFILL1!x601200y294000
*463 xofiller!SHFILL1!x687600y294000
*464 xofiller!SHFILL2!x719600y294000
*465 xofiller!SHFILL2!x866800y294000
*466 xofiller!SHFILL2!x150000y322800
*467 xofiller!SHFILL3!x182000y322800
*468 xofiller!SHFILL1!x191600y322800
*469 xofiller!SHFILL3!x223600y322800
*470 xofiller!SHFILL3!x233200y322800
*471 xofiller!SHFILL3!x242800y322800
*472 xofiller!SHFILL3!x252400y322800
*473 xofiller!SHFILL3!x262000y322800
*474 xofiller!SHFILL1!x271600y322800
*475 xofiller!SHFILL3!x498800y322800
*476 xofiller!SHFILL3!x508400y322800
*477 xofiller!SHFILL3!x518000y322800
*478 xofiller!SHFILL1!x527600y322800
*479 xofiller!SHFILL3!x572400y322800
*480 xofiller!SHFILL3!x582000y322800
*481 xofiller!SHFILL3!x591600y322800
*482 xofiller!SHFILL3!x601200y322800
*483 xofiller!SHFILL2!x610800y322800
*484 xofiller!SHFILL3!x150000y351600
*485 xofiller!SHFILL1!x159600y351600
*486 xofiller!SHFILL2!x182000y351600
*487 xofiller!SHFILL3!x207600y351600
*488 xofiller!SHFILL2!x217200y351600
*489 xofiller!SHFILL1!x265200y351600
*490 xofiller!SHFILL3!x498800y351600
*491 xofiller!SHFILL3!x508400y351600
*492 xofiller!SHFILL3!x518000y351600
*493 xofiller!SHFILL3!x527600y351600
*494 xofiller!SHFILL3!x537200y351600
*495 xofiller!SHFILL3!x546800y351600
*496 xofiller!SHFILL2!x556400y351600
*497 xofiller!SHFILL2!x582000y351600
*498 xofiller!SHFILL3!x623600y351600
*499 xofiller!SHFILL3!x633200y351600
*500 xofiller!SHFILL3!x642800y351600
*501 xofiller!SHFILL1!x652400y351600
*502 xofiller!SHFILL3!x722800y351600
*503 xofiller!SHFILL3!x732400y351600
*504 xofiller!SHFILL3!x742000y351600
*505 xofiller!SHFILL3!x751600y351600
*506 xofiller!SHFILL3!x761200y351600
*507 xofiller!SHFILL3!x770800y351600
*508 xofiller!SHFILL3!x780400y351600
*509 xofiller!SHFILL3!x790000y351600
*510 xofiller!SHFILL3!x799600y351600
*511 xofiller!SHFILL3!x809200y351600
*512 xofiller!SHFILL3!x818800y351600
*513 xofiller!SHFILL3!x828400y351600
*514 xofiller!SHFILL3!x838000y351600
*515 xofiller!SHFILL3!x847600y351600
*516 xofiller!SHFILL3!x857200y351600
*517 xofiller!SHFILL2!x866800y351600
*518 xofiller!SHFILL2!x150000y380400
*519 xofiller!SHFILL1!x220400y380400
*520 xofiller!SHFILL3!x265200y380400
*521 xofiller!SHFILL1!x409200y380400
*522 xofiller!SHFILL2!x614000y380400
*523 xofiller!SHFILL1!x188400y409200
*524 xofiller!SHFILL1!x210800y409200
*525 xofiller!SHFILL3!x255600y409200
*526 xofiller!SHFILL1!x396400y409200
*527 xofiller!SHFILL2!x418800y409200
*528 xofiller!SHFILL2!x444400y409200
*529 xofiller!SHFILL3!x553200y409200
*530 xofiller!SHFILL1!x582000y409200
*531 xofiller!SHFILL3!x604400y409200
*532 xofiller!SHFILL1!x614000y409200
*533 xofiller!SHFILL3!x636400y409200
*534 xofiller!SHFILL3!x646000y409200
*535 xofiller!SHFILL3!x655600y409200
*536 xofiller!SHFILL1!x665200y409200
*537 xofiller!SHFILL3!x780400y409200
*538 xofiller!SHFILL1!x790000y409200
*539 xofiller!SHFILL3!x834800y409200
*540 xofiller!SHFILL3!x844400y409200
*541 xofiller!SHFILL3!x854000y409200
*542 xofiller!SHFILL3!x863600y409200
*543 xofiller!SHFILL1!x150000y438000
*544 xofiller!SHFILL2!x201200y438000
*545 xofiller!SHFILL3!x249200y438000
*546 xofiller!SHFILL3!x377200y438000
*547 xofiller!SHFILL3!x386800y438000
*548 xofiller!SHFILL3!x396400y438000
*549 xofiller!SHFILL2!x406000y438000
*550 xofiller!SHFILL2!x431600y438000
*551 xofiller!SHFILL3!x466800y438000
*552 xofiller!SHFILL2!x495600y438000
*553 xofiller!SHFILL3!x521200y438000
*554 xofiller!SHFILL3!x530800y438000
*555 xofiller!SHFILL3!x540400y438000
*556 xofiller!SHFILL2!x569200y438000
*557 xofiller!SHFILL2!x601200y438000
*558 xofiller!SHFILL3!x684400y438000
*559 xofiller!SHFILL1!x694000y438000
*560 xofiller!SHFILL3!x809200y438000
*561 xofiller!SHFILL3!x818800y438000
*562 xofiller!SHFILL1!x828400y438000
*563 xofiller!SHFILL2!x150000y466800
*564 xofiller!SHFILL3!x175600y466800
*565 xofiller!SHFILL3!x185200y466800
*566 xofiller!SHFILL3!x194800y466800
*567 xofiller!SHFILL3!x204400y466800
*568 xofiller!SHFILL3!x214000y466800
*569 xofiller!SHFILL3!x223600y466800
*570 xofiller!SHFILL3!x281200y466800
*571 xofiller!SHFILL3!x290800y466800
*572 xofiller!SHFILL3!x300400y466800
*573 xofiller!SHFILL3!x310000y466800
*574 xofiller!SHFILL3!x319600y466800
*575 xofiller!SHFILL2!x329200y466800
*576 xofiller!SHFILL1!x364400y466800
*577 xofiller!SHFILL1!x386800y466800
*578 xofiller!SHFILL2!x463600y466800
*579 xofiller!SHFILL2!x498800y466800
*580 xofiller!SHFILL1!x540400y466800
*581 xofiller!SHFILL2!x569200y466800
*582 xofiller!SHFILL1!x601200y466800
*583 xofiller!SHFILL2!x630000y466800
*584 xofiller!SHFILL2!x674800y466800
*585 xofiller!SHFILL3!x777200y466800
*586 xofiller!SHFILL3!x786800y466800
*587 xofiller!SHFILL2!x796400y466800
*588 xofiller!SHFILL3!x844400y466800
*589 xofiller!SHFILL3!x854000y466800
*590 xofiller!SHFILL3!x863600y466800
*591 xofiller!SHFILL1!x150000y495600
*592 xofiller!SHFILL3!x335600y495600
*593 xofiller!SHFILL3!x345200y495600
*594 xofiller!SHFILL2!x354800y495600
*595 xofiller!SHFILL3!x406000y495600
*596 xofiller!SHFILL3!x415600y495600
*597 xofiller!SHFILL2!x425200y495600
*598 xofiller!SHFILL2!x460400y495600
*599 xofiller!SHFILL3!x537200y495600
*600 xofiller!SHFILL3!x546800y495600
*601 xofiller!SHFILL1!x870000y495600
*602 xofiller!SHFILL1!x150000y524400
*603 xofiller!SHFILL1!x188400y524400
*604 xofiller!SHFILL1!x233200y524400
*605 xofiller!SHFILL1!x380400y524400
*606 xofiller!SHFILL2!x428400y524400
*607 xofiller!SHFILL3!x454000y524400
*608 xofiller!SHFILL3!x463600y524400
*609 xofiller!SHFILL3!x473200y524400
*610 xofiller!SHFILL3!x482800y524400
*611 xofiller!SHFILL3!x492400y524400
*612 xofiller!SHFILL3!x502000y524400
*613 xofiller!SHFILL1!x511600y524400
*614 xofiller!SHFILL1!x556400y524400
*615 xofiller!SHFILL3!x684400y524400
*616 xofiller!SHFILL3!x694000y524400
*617 xofiller!SHFILL3!x703600y524400
*618 xofiller!SHFILL3!x713200y524400
*619 xofiller!SHFILL3!x722800y524400
*620 xofiller!SHFILL3!x732400y524400
*621 xofiller!SHFILL3!x742000y524400
*622 xofiller!SHFILL3!x802800y524400
*623 xofiller!SHFILL3!x812400y524400
*624 xofiller!SHFILL3!x822000y524400
*625 xofiller!SHFILL3!x831600y524400
*626 xofiller!SHFILL2!x841200y524400
*627 xofiller!SHFILL1!x870000y524400
*628 xofiller!SHFILL1!x150000y553200
*629 xofiller!SHFILL1!x172400y553200
*630 xofiller!SHFILL3!x194800y553200
*631 xofiller!SHFILL3!x204400y553200
*632 xofiller!SHFILL3!x214000y553200
*633 xofiller!SHFILL3!x223600y553200
*634 xofiller!SHFILL1!x233200y553200
*635 xofiller!SHFILL3!x569200y553200
*636 xofiller!SHFILL3!x578800y553200
*637 xofiller!SHFILL3!x588400y553200
*638 xofiller!SHFILL1!x598000y553200
*639 xofiller!SHFILL3!x633200y553200
*640 xofiller!SHFILL1!x642800y553200
*641 xofiller!SHFILL3!x764400y553200
*642 xofiller!SHFILL3!x774000y553200
*643 xofiller!SHFILL3!x783600y553200
*644 xofiller!SHFILL3!x793200y553200
*645 xofiller!SHFILL1!x802800y553200
*646 xofiller!SHFILL3!x847600y553200
*647 xofiller!SHFILL3!x857200y553200
*648 xofiller!SHFILL2!x866800y553200
*649 xofiller!SHFILL1!x169200y582000
*650 xofiller!SHFILL3!x281200y582000
*651 xofiller!SHFILL3!x598000y582000
*652 xofiller!SHFILL3!x607600y582000
*653 xofiller!SHFILL3!x617200y582000
*654 xofiller!SHFILL3!x626800y582000
*655 xofiller!SHFILL3!x636400y582000
*656 xofiller!SHFILL1!x646000y582000
*657 xofiller!SHFILL2!x169200y610800
*658 xofiller!SHFILL1!x194800y610800
*659 xofiller!SHFILL3!x239600y610800
*660 xofiller!SHFILL3!x249200y610800
*661 xofiller!SHFILL3!x258800y610800
*662 xofiller!SHFILL3!x268400y610800
*663 xofiller!SHFILL1!x278000y610800
*664 xofiller!SHFILL1!x393200y610800
*665 xofiller!SHFILL1!x575600y610800
*666 xofiller!SHFILL3!x668400y610800
*667 xofiller!SHFILL3!x678000y610800
*668 xofiller!SHFILL3!x687600y610800
*669 xofiller!SHFILL3!x697200y610800
*670 xofiller!SHFILL3!x706800y610800
*671 xofiller!SHFILL3!x716400y610800
*672 xofiller!SHFILL3!x726000y610800
*673 xofiller!SHFILL3!x735600y610800
*674 xofiller!SHFILL3!x745200y610800
*675 xofiller!SHFILL1!x754800y610800
*676 xofiller!SHFILL1!x870000y610800
*677 xofiller!SHFILL1!x150000y639600
*678 xofiller!SHFILL2!x172400y639600
*679 xofiller!SHFILL3!x198000y639600
*680 xofiller!SHFILL3!x207600y639600
*681 xofiller!SHFILL3!x217200y639600
*682 xofiller!SHFILL3!x226800y639600
*683 xofiller!SHFILL3!x236400y639600
*684 xofiller!SHFILL3!x246000y639600
*685 xofiller!SHFILL3!x255600y639600
*686 xofiller!SHFILL3!x265200y639600
*687 xofiller!SHFILL2!x274800y639600
*688 xofiller!SHFILL1!x412400y639600
*689 xofiller!SHFILL2!x434800y639600
*690 xofiller!SHFILL1!x460400y639600
*691 xofiller!SHFILL2!x639600y639600
*692 xofiller!SHFILL2!x758000y639600
*693 xofiller!SHFILL3!x806000y639600
*694 xofiller!SHFILL3!x815600y639600
*695 xofiller!SHFILL3!x825200y639600
*696 xofiller!SHFILL3!x834800y639600
*697 xofiller!SHFILL2!x844400y639600
*698 xofiller!SHFILL1!x870000y639600
*699 xofiller!SHFILL1!x150000y668400
*700 xofiller!SHFILL3!x172400y668400
*701 xofiller!SHFILL1!x182000y668400
*702 xofiller!SHFILL1!x230000y668400
*703 xofiller!SHFILL3!x294000y668400
*704 xofiller!SHFILL3!x303600y668400
*705 xofiller!SHFILL3!x313200y668400
*706 xofiller!SHFILL3!x322800y668400
*707 xofiller!SHFILL3!x332400y668400
*708 xofiller!SHFILL3!x342000y668400
*709 xofiller!SHFILL3!x351600y668400
*710 xofiller!SHFILL3!x361200y668400
*711 xofiller!SHFILL3!x370800y668400
*712 xofiller!SHFILL3!x380400y668400
*713 xofiller!SHFILL3!x390000y668400
*714 xofiller!SHFILL1!x428400y668400
*715 xofiller!SHFILL1!x463600y668400
*716 xofiller!SHFILL2!x495600y668400
*717 xofiller!SHFILL2!x569200y668400
*718 xofiller!SHFILL3!x786800y668400
*719 xofiller!SHFILL3!x796400y668400
*720 xofiller!SHFILL3!x847600y668400
*721 xofiller!SHFILL3!x857200y668400
*722 xofiller!SHFILL2!x866800y668400
*723 xofiller!SHFILL3!x150000y697200
*724 xofiller!SHFILL3!x159600y697200
*725 xofiller!SHFILL2!x188400y697200
*726 xofiller!SHFILL1!x226800y697200
*727 xofiller!SHFILL1!x271600y697200
*728 xofiller!SHFILL1!x415600y697200
*729 xofiller!SHFILL3!x438000y697200
*730 xofiller!SHFILL3!x447600y697200
*731 xofiller!SHFILL3!x457200y697200
*732 xofiller!SHFILL3!x466800y697200
*733 xofiller!SHFILL3!x495600y697200
*734 xofiller!SHFILL3!x530800y697200
*735 xofiller!SHFILL3!x540400y697200
*736 xofiller!SHFILL3!x550000y697200
*737 xofiller!SHFILL3!x559600y697200
*738 xofiller!SHFILL2!x569200y697200
*739 xofiller!SHFILL3!x594800y697200
*740 xofiller!SHFILL3!x604400y697200
*741 xofiller!SHFILL3!x614000y697200
*742 xofiller!SHFILL3!x623600y697200
*743 xofiller!SHFILL3!x633200y697200
*744 xofiller!SHFILL3!x642800y697200
*745 xofiller!SHFILL3!x652400y697200
*746 xofiller!SHFILL3!x662000y697200
*747 xofiller!SHFILL3!x671600y697200
*748 xofiller!SHFILL3!x681200y697200
*749 xofiller!SHFILL3!x690800y697200
*750 xofiller!SHFILL3!x700400y697200
*751 xofiller!SHFILL3!x710000y697200
*752 xofiller!SHFILL3!x719600y697200
*753 xofiller!SHFILL3!x729200y697200
*754 xofiller!SHFILL3!x738800y697200
*755 xofiller!SHFILL3!x748400y697200
*756 xofiller!SHFILL1!x758000y697200
*757 xofiller!SHFILL1!x150000y726000
*758 xofiller!SHFILL1!x172400y726000
*759 xofiller!SHFILL2!x194800y726000
*760 xofiller!SHFILL1!x220400y726000
*761 xofiller!SHFILL2!x265200y726000
*762 xofiller!SHFILL2!x383600y726000
*763 xofiller!SHFILL3!x431600y726000
*764 xofiller!SHFILL1!x441200y726000
*765 xofiller!SHFILL2!x473200y726000
*766 xofiller!SHFILL2!x498800y726000
*767 xofiller!SHFILL2!x534000y726000
*768 xofiller!SHFILL3!x566000y726000
*769 xofiller!SHFILL1!x575600y726000
*770 xofiller!SHFILL2!x598000y726000
*771 xofiller!SHFILL1!x754800y726000
*772 xofiller!SHFILL1!x870000y726000
*773 xofiller!SHFILL1!x150000y754800
*774 xofiller!SHFILL2!x178800y754800
*775 xofiller!SHFILL2!x204400y754800
*776 xofiller!SHFILL1!x230000y754800
*777 xofiller!SHFILL2!x274800y754800
*778 xofiller!SHFILL3!x393200y754800
*779 xofiller!SHFILL3!x402800y754800
*780 xofiller!SHFILL3!x412400y754800
*781 xofiller!SHFILL3!x422000y754800
*782 xofiller!SHFILL1!x431600y754800
*783 xofiller!SHFILL3!x502000y754800
*784 xofiller!SHFILL3!x511600y754800
*785 xofiller!SHFILL1!x553200y754800
*786 xofiller!SHFILL2!x594800y754800
*787 xofiller!SHFILL2!x639600y754800
*788 xofiller!SHFILL3!x758000y754800
*789 xofiller!SHFILL3!x767600y754800
*790 xofiller!SHFILL3!x777200y754800
*791 xofiller!SHFILL3!x786800y754800
*792 xofiller!SHFILL3!x796400y754800
*793 xofiller!SHFILL3!x806000y754800
*794 xofiller!SHFILL3!x815600y754800
*795 xofiller!SHFILL3!x825200y754800
*796 xofiller!SHFILL3!x834800y754800
*797 xofiller!SHFILL3!x844400y754800
*798 xofiller!SHFILL3!x854000y754800
*799 xofiller!SHFILL3!x863600y754800
*800 xofiller!SHFILL3!x150000y783600
*801 xofiller!SHFILL3!x159600y783600
*802 xofiller!SHFILL3!x188400y783600
*803 xofiller!SHFILL1!x198000y783600
*804 xofiller!SHFILL3!x220400y783600
*805 xofiller!SHFILL3!x230000y783600
*806 xofiller!SHFILL3!x239600y783600
*807 xofiller!SHFILL3!x249200y783600
*808 xofiller!SHFILL3!x258800y783600
*809 xofiller!SHFILL3!x268400y783600
*810 xofiller!SHFILL3!x278000y783600
*811 xofiller!SHFILL3!x287600y783600
*812 xofiller!SHFILL3!x297200y783600
*813 xofiller!SHFILL3!x306800y783600
*814 xofiller!SHFILL3!x316400y783600
*815 xofiller!SHFILL3!x326000y783600
*816 xofiller!SHFILL3!x335600y783600
*817 xofiller!SHFILL3!x345200y783600
*818 xofiller!SHFILL3!x354800y783600
*819 xofiller!SHFILL3!x364400y783600
*820 xofiller!SHFILL3!x374000y783600
*821 xofiller!SHFILL2!x383600y783600
*822 xofiller!SHFILL3!x674800y783600
*823 xofiller!SHFILL3!x684400y783600
*824 xofiller!SHFILL3!x694000y783600
*825 xofiller!SHFILL3!x703600y783600
*826 xofiller!SHFILL1!x754800y783600
*827 xofiller!SHFILL1!x870000y783600
*828 xofiller!SHFILL1!x150000y812400
*829 xofiller!SHFILL1!x210800y812400
*830 xofiller!SHFILL2!x233200y812400
*831 xofiller!SHFILL1!x281200y812400
*832 xofiller!SHFILL3!x396400y812400
*833 xofiller!SHFILL3!x406000y812400
*834 xofiller!SHFILL3!x415600y812400
*835 xofiller!SHFILL3!x425200y812400
*836 xofiller!SHFILL3!x434800y812400
*837 xofiller!SHFILL3!x444400y812400
*838 xofiller!SHFILL3!x454000y812400
*839 xofiller!SHFILL3!x463600y812400
*840 xofiller!SHFILL3!x473200y812400
*841 xofiller!SHFILL1!x521200y812400
*842 xofiller!SHFILL3!x658800y812400
*843 xofiller!SHFILL1!x668400y812400
*844 xofiller!SHFILL1!x713200y812400
*845 xofiller!SHFILL1!x758000y812400
*846 xofiller!SHFILL3!x150000y841200
*847 xofiller!SHFILL3!x188400y841200
*848 xofiller!SHFILL3!x198000y841200
*849 xofiller!SHFILL2!x207600y841200
*850 xofiller!SHFILL1!x233200y841200
*851 xofiller!SHFILL2!x255600y841200
*852 xofiller!SHFILL3!x290800y841200
*853 xofiller!SHFILL1!x300400y841200
*854 xofiller!SHFILL3!x322800y841200
*855 xofiller!SHFILL2!x332400y841200
*856 xofiller!SHFILL3!x386800y841200
*857 xofiller!SHFILL3!x620400y841200
*858 xofiller!SHFILL1!x630000y841200
*859 xofiller!SHFILL3!x745200y841200
*860 xofiller!SHFILL3!x754800y841200
*861 xofiller!SHFILL3!x764400y841200
*862 xofiller!SHFILL3!x774000y841200
*863 xofiller!SHFILL3!x783600y841200
*864 xofiller!SHFILL3!x793200y841200
*865 xofiller!SHFILL3!x802800y841200
*866 xofiller!SHFILL3!x812400y841200
*867 xofiller!SHFILL3!x822000y841200
*868 xofiller!SHFILL3!x831600y841200
*869 xofiller!SHFILL3!x841200y841200
*870 xofiller!SHFILL3!x850800y841200
*871 xofiller!SHFILL3!x860400y841200
*872 xofiller!SHFILL1!x870000y841200
*873 N128
*874 N129
*875 N130
*876 N131
*877 N132
*878 N133
*879 N134
*880 N135
*881 N136
*882 N137
*883 N138
*884 N139
*885 N140
*886 N141
*887 N142
*888 N143
*889 N144
*890 N145
*891 N146
*892 N147
*893 N148
*894 N149
*895 N150
*896 N151
*897 N152
*898 N153
*899 N154
*900 N155
*901 N156
*902 N157
*903 N158
*904 N159
*905 n5
*906 n13
*907 n17
*908 n21
*909 n29
*910 n32
*911 n35
*912 n55
*913 n88
*914 n89
*915 n96
*916 n97
*917 n98
*918 n99
*919 n100
*920 n101
*921 n102
*922 n104
*923 n105
*924 n106
*925 n107
*926 n108
*927 n109
*928 n110
*929 n111
*930 n112
*931 n113
*932 n114
*933 n115
*934 n118
*935 n119
*936 n120
*937 n122
*938 n124
*939 n125
*940 n126
*941 n1280
*942 n1290
*943 n1300
*944 n1310
*945 n1320
*946 n1330
*947 n1340
*948 n1350
*949 n1360
*950 n1370
*951 n1380
*952 n1390
*953 n1400
*954 n1410
*955 n1420
*956 n1430
*957 n1440
*958 n1450
*959 n1460
*960 n1470
*961 n1480
*962 n1490
*963 n1500
*964 n1510
*965 n1520
*966 n1530
*967 n1540
*968 n1550
*969 n1560
*970 n1570
*971 n1580
*972 n1590
*973 n160
*974 n161
*975 n162
*976 n163
*977 n164
*978 n165
*979 n166
*980 n167
*981 n168
*982 n169
*983 n170
*984 n171
*985 n172
*986 n173
*987 n174
*988 n175
*989 n176
*990 n177
*991 n178
*992 n179
*993 n180
*994 n181
*995 n182
*996 n183
*997 n184
*998 n185
*999 n186
*1000 n187
*1001 n188
*1002 n189
*1003 n190
*1004 n191
*1005 n192
*1006 n193
*1007 n194
*1008 n195
*1009 HFSNET_0
*1010 HFSNET_2
*1011 sub_47/tmp_net1
*1012 n200
*1013 n201
*1014 n202
*1015 n203
*1016 n204
*1017 n205
*1018 n206
*1019 n207
*1020 n208
*1021 n209
*1022 n210
*1023 n211
*1024 n212
*1025 n213
*1026 n214
*1027 n215
*1028 n216
*1029 n217
*1030 n218
*1031 n219
*1032 n220
*1033 n221
*1034 n222
*1035 n223
*1036 n224
*1037 n225
*1038 n227
*1039 n228
*1040 n229
*1041 n230_CDR1
*1042 n231
*1043 n232
*1044 n233
*1045 n234
*1046 n235_CDR1
*1047 n236_CDR1
*1048 n237_CDR1
*1049 n238_CDR1
*1050 n239_CDR1
*1051 n240_CDR1
*1052 n242_CDR1
*1053 n243
*1054 n244
*1055 n245
*1056 n246
*1057 n247
*1058 n248
*1059 n249
*1060 n250
*1061 n251
*1062 n252
*1063 n253
*1064 n254
*1065 n255
*1066 sub_47/tmp_net2
*1067 ZCTSNET_0
*1068 ZCTSNET_1
*1069 tmp_net3
*1070 tmp_net4
*1071 tmp_net5
*1072 tmp_net6
*1073 tmp_net7
*1074 tmp_net8
*1075 n265
*1076 state[2]
*1077 state[1]
*1078 state[0]
*1079 i[3]
*1080 i[2]
*1081 i[1]
*1082 i[0]
*1083 sar_reg[9]
*1084 sar_reg[8]
*1085 sar_reg[7]
*1086 sar_reg[6]
*1087 sar_reg[5]
*1088 sar_reg[4]
*1089 sar_reg[3]
*1090 sar_reg[2]
*1091 sar_reg[1]
*1092 sar_reg[0]
*1093 sub_47/n1
*1094 sub_47/n2
*1095 sub_47/n3
*1096 sub_47/n4
*1097 sub_47/n5
*1098 sub_47/n6
*1099 sub_47/n7
*1100 sub_47/n8
*1101 sub_47/n9
*1102 sub_47/n10
*1103 sub_47/n11
*1104 tmp_net9
*1105 tmp_net10
*1106 sub_47/n14
*1107 sub_47/n15
*1108 tmp_net11
*1109 sub_47/gre_a_INV_23_0
*1110 sub_47/n19
*1111 sub_47/n20
*1112 sub_47/n21
*1113 sub_47/n22
*1114 sub_47/n23
*1115 sub_47/n24
*1116 sub_47/n27
*1117 sub_47/n28
*1118 sub_47/n29
*1119 sub_47/n30
*1120 sub_47/n31
*1121 sub_47/n32
*1122 sub_47/n33
*1123 sub_47/n34
*1124 sub_47/n35
*1125 sub_47/n36
*1126 sub_47/n37
*1127 sub_47/n38
*1128 sub_47/n39
*1129 sub_47/n40
*1130 sub_47/n41
*1131 sub_47/n42
*1132 sub_47/n43
*1133 sub_47/n44
*1134 sub_47/n45
*1135 sub_47/n46
*1136 sub_47/n47
*1137 sub_47/n48
*1138 sub_47/n49
*1139 sub_47/n50
*1140 sub_47/n51
*1141 sub_47/n52
*1142 sub_47/n53
*1143 sub_47/n54
*1144 sub_47/n55
*1145 sub_47/n56
*1146 sub_47/n57
*1147 sub_47/n58
*1148 sub_47/n59
*1149 sub_47/n60
*1150 sub_47/n61
*1151 sub_47/n62
*1152 sub_47/n63
*1153 sub_47/n64
*1154 sub_47/n65
*1155 sub_47/n66
*1156 sub_47/n67
*1157 sub_47/n68
*1158 sub_47/n69
*1159 sub_47/n70
*1160 sub_47/n71
*1161 sub_47/n72
*1162 sub_47/n73
*1163 sub_47/n74
*1164 sub_47/n75
*1165 sub_47/n76
*1166 sub_47/n77
*1167 sub_47/n78
*1168 sub_47/n79
*1169 sub_47/n80
*1170 sub_47/n81
*1171 sub_47/n82
*1172 sub_47/n83
*1173 sub_47/n84
*1174 sub_47/n85
*1175 sub_47/n86
*1176 sub_47/n87
*1177 sub_47/n88
*1178 sub_47/n89
*1179 sub_47/n90
*1180 sub_47/n91
*1181 sub_47/n92
*1182 sub_47/n93

*PORTS

*1 I *C 0.220 51.480
*2 I *C 102.100 52.760
*3 I *C 57.880 101.780
*4 O *C 102.100 58.520
*5 O *C 102.100 64.280
*6 O *C 102.100 54.040